No_EVs/Output_No_EVs_3ph/output_voltage_1440.csv
# Output_case1_3p\output_voltage_1440.csv run at 2000-01-02 00:00:00 EST on 963 nodes
node_name,voltA_mag,voltA_angle,voltB_mag,voltB_angle,voltC_mag,voltC_angle
SourceBus,6668.395609,0.000000,6668.395609,4.188790,6668.395609,2.094395
Bus1,252.126863,-0.524084,252.126863,3.664706,252.126863,1.570311
Bus2,252.116865,-0.524075,252.116865,3.664715,252.116865,1.570320
Bus3,252.115817,-0.524074,252.115817,3.664716,252.115817,1.570321
Bus4,252.114835,-0.524073,252.114835,3.664717,252.114835,1.570322
Bus5,252.113979,-0.524072,252.113979,3.664718,252.113979,1.570323
Bus6,252.112630,-0.524071,252.112630,3.664719,252.112630,1.570324
Bus7,252.020788,-0.523988,252.020788,3.664802,252.020788,1.570407
Bus8,252.016674,-0.523985,252.016674,3.664806,252.016674,1.570410
Bus9,252.013250,-0.523982,252.013250,3.664809,252.013250,1.570414
Bus10,252.010246,-0.523979,252.010246,3.664811,252.010246,1.570416
Bus11,252.008004,-0.523977,252.008004,3.664813,252.008004,1.570418
Bus12,252.005899,-0.523975,252.005899,3.664815,252.005899,1.570420
Bus13,252.004605,-0.523974,252.004605,3.664816,252.004605,1.570421
Bus14,252.001383,-0.523971,252.001383,3.664819,252.001383,1.570424
Bus15,251.975283,-0.523947,251.975283,3.664843,251.975283,1.570448
Bus16,251.975283,-0.523947,251.975283,3.664843,251.975283,1.570448
Bus17,251.943633,-0.523919,251.943633,3.664871,251.943633,1.570476
Bus18,251.975283,-0.523947,251.975283,3.664843,251.975283,1.570448
Bus19,251.941455,-0.523917,251.941455,3.664873,251.941455,1.570478
Bus20,251.975283,-0.523947,251.975283,3.664843,251.975283,1.570448
Bus21,251.939010,-0.523915,251.939010,3.664876,251.939010,1.570481
Bus22,251.975283,-0.523947,251.975283,3.664843,251.975283,1.570448
Bus23,251.935028,-0.523911,251.935028,3.664879,251.935028,1.570484
Bus24,251.975283,-0.523947,251.975283,3.664843,251.975283,1.570448
Bus25,251.927785,-0.523904,251.927785,3.664886,251.927785,1.570491
Bus26,251.975283,-0.523947,251.975283,3.664843,251.975283,1.570448
Bus27,251.924565,-0.523901,251.924565,3.664889,251.924565,1.570494
Bus28,251.840762,-0.523826,251.840762,3.664964,251.840762,1.570569
Bus29,251.975283,-0.523947,251.975283,3.664843,251.975283,1.570448
Bus30,251.924481,-0.523901,251.924481,3.664889,251.924481,1.570494
Bus31,251.923782,-0.523901,251.923782,3.664890,251.923782,1.570495
Bus32,251.817596,-0.523805,251.817596,3.664985,251.817596,1.570590
Bus33,251.975283,-0.523947,251.975283,3.664843,251.975283,1.570448
Bus34,251.924290,-0.523901,251.924290,3.664889,251.924290,1.570494
Bus35,251.923755,-0.523901,251.923755,3.664890,251.923755,1.570495
Bus36,251.816674,-0.523804,251.816674,3.664986,251.816674,1.570591
Bus37,251.748437,-0.523743,251.748437,3.665048,251.748437,1.570653
Bus38,251.975283,-0.523947,251.975283,3.664843,251.975283,1.570448
Bus39,251.923717,-0.523900,251.923717,3.664890,251.923717,1.570495
Bus40,251.816642,-0.523804,251.816642,3.664986,251.816642,1.570591
Bus41,251.816527,-0.523804,251.816527,3.664986,251.816527,1.570591
Bus42,251.700446,-0.523699,251.700446,3.665091,251.700446,1.570696
Bus43,251.748437,-0.523743,251.748437,3.665048,251.748437,1.570653
Bus44,251.975283,-0.523947,251.975283,3.664843,251.975283,1.570448
Bus45,251.923668,-0.523900,251.923668,3.664890,251.923668,1.570495
Bus46,251.816628,-0.523804,251.816628,3.664986,251.816628,1.570591
Bus47,251.816175,-0.523804,251.816175,3.664987,251.816175,1.570591
Bus48,251.664181,-0.523666,251.664181,3.665124,251.664181,1.570729
Bus49,251.748437,-0.523743,251.748437,3.665048,251.748437,1.570653
Bus50,251.975283,-0.523947,251.975283,3.664843,251.975283,1.570448
Bus51,251.923549,-0.523900,251.923549,3.664890,251.923549,1.570495
Bus52,251.816613,-0.523804,251.816613,3.664986,251.816613,1.570591
Bus53,251.658952,-0.523662,251.658952,3.665128,251.658952,1.570733
Bus54,251.664181,-0.523666,251.664181,3.665124,251.664181,1.570729
Bus55,251.748437,-0.523743,251.748437,3.665048,251.748437,1.570653
Bus56,251.975283,-0.523947,251.975283,3.664843,251.975283,1.570448
Bus57,251.923447,-0.523900,251.923447,3.664890,251.923447,1.570495
Bus58,251.816598,-0.523804,251.816598,3.664986,251.816598,1.570591
Bus59,251.635268,-0.523640,251.635268,3.665150,251.635268,1.570755
Bus60,251.664181,-0.523666,251.664181,3.665124,251.664181,1.570729
Bus61,251.748437,-0.523743,251.748437,3.665048,251.748437,1.570653
Bus62,251.975283,-0.523947,251.975283,3.664843,251.975283,1.570448
Bus63,251.922959,-0.523900,251.922959,3.664890,251.922959,1.570495
Bus64,251.816589,-0.523804,251.816589,3.664986,251.816589,1.570591
Bus65,251.630738,-0.523636,251.630738,3.665154,251.630738,1.570759
Bus66,251.629171,-0.523634,251.629171,3.665156,251.629171,1.570761
Bus67,251.664181,-0.523666,251.664181,3.665124,251.664181,1.570729
Bus68,251.748437,-0.523743,251.748437,3.665048,251.748437,1.570653
Bus69,251.975283,-0.523947,251.975283,3.664843,251.975283,1.570448
Bus70,251.921231,-0.523898,251.921231,3.664892,251.921231,1.570497
Bus71,251.816572,-0.523804,251.816572,3.664986,251.816572,1.570591
Bus72,251.577209,-0.523588,251.577209,3.665202,251.577209,1.570807
Bus73,251.628889,-0.523634,251.628889,3.665156,251.628889,1.570761
Bus74,251.626472,-0.523632,251.626472,3.665159,251.626472,1.570763
Bus75,251.664181,-0.523666,251.664181,3.665124,251.664181,1.570729
Bus76,251.748437,-0.523743,251.748437,3.665048,251.748437,1.570653
Bus77,251.975283,-0.523947,251.975283,3.664843,251.975283,1.570448
Bus78,251.816486,-0.523804,251.816486,3.664986,251.816486,1.570591
Bus79,251.558551,-0.523571,251.558551,3.665219,251.558551,1.570824
Bus80,251.664181,-0.523666,251.664181,3.665124,251.664181,1.570729
Bus81,251.748437,-0.523743,251.748437,3.665048,251.748437,1.570653
Bus82,251.975283,-0.523947,251.975283,3.664843,251.975283,1.570448
Bus83,251.816160,-0.523804,251.816160,3.664987,251.816160,1.570591
Bus84,251.554479,-0.523567,251.554479,3.665223,251.554479,1.570828
Bus85,251.664181,-0.523666,251.664181,3.665124,251.664181,1.570729
Bus86,251.748437,-0.523743,251.748437,3.665048,251.748437,1.570653
Bus87,251.975283,-0.523947,251.975283,3.664843,251.975283,1.570448
Bus88,251.546222,-0.523560,251.546222,3.665230,251.546222,1.570835
Bus89,251.664181,-0.523666,251.664181,3.665124,251.664181,1.570729
Bus90,251.748437,-0.523743,251.748437,3.665048,251.748437,1.570653
Bus91,251.975283,-0.523947,251.975283,3.664843,251.975283,1.570448
Bus92,251.538435,-0.523553,251.538435,3.665237,251.538435,1.570842
Bus93,251.748437,-0.523743,251.748437,3.665048,251.748437,1.570653
Bus94,251.975283,-0.523947,251.975283,3.664843,251.975283,1.570448
Bus95,251.533909,-0.523549,251.533909,3.665242,251.533909,1.570846
Bus96,251.748437,-0.523743,251.748437,3.665048,251.748437,1.570653
Bus97,251.975283,-0.523947,251.975283,3.664843,251.975283,1.570448
Bus98,251.530920,-0.523546,251.530920,3.665244,251.530920,1.570849
Bus99,251.748437,-0.523743,251.748437,3.665048,251.748437,1.570653
Bus100,251.975283,-0.523947,251.975283,3.664843,251.975283,1.570448
Bus101,251.526793,-0.523542,251.526793,3.665248,251.526793,1.570853
Bus102,251.748437,-0.523743,251.748437,3.665048,251.748437,1.570653
Bus103,251.975283,-0.523947,251.975283,3.664843,251.975283,1.570448
Bus104,251.526763,-0.523542,251.526763,3.665248,251.526763,1.570853
Bus105,251.524222,-0.523540,251.524222,3.665250,251.524222,1.570855
Bus106,251.748437,-0.523743,251.748437,3.665048,251.748437,1.570653
Bus107,251.526726,-0.523542,251.526726,3.665248,251.526726,1.570853
Bus108,251.522763,-0.523539,251.522763,3.665252,251.522763,1.570857
Bus109,251.748437,-0.523743,251.748437,3.665048,251.748437,1.570653
Bus110,251.526684,-0.523542,251.526684,3.665248,251.526684,1.570853
Bus111,251.465230,-0.523487,251.465230,3.665304,251.465230,1.570909
Bus112,251.748437,-0.523743,251.748437,3.665048,251.748437,1.570653
Bus113,251.526619,-0.523542,251.526619,3.665248,251.526619,1.570853
Bus114,251.459466,-0.523481,251.459466,3.665309,251.459466,1.570914
Bus115,251.748437,-0.523743,251.748437,3.665048,251.748437,1.570653
Bus116,251.526536,-0.523542,251.526536,3.665248,251.526536,1.570853
Bus117,251.459019,-0.523481,251.459019,3.665309,251.459019,1.570914
Bus118,251.445696,-0.523472,251.445696,3.665318,251.445696,1.570923
Bus119,251.748437,-0.523743,251.748437,3.665048,251.748437,1.570653
Bus120,251.526477,-0.523542,251.526477,3.665248,251.526477,1.570853
Bus121,251.459019,-0.523481,251.459019,3.665309,251.459019,1.570914
Bus122,251.458801,-0.523482,251.458801,3.665309,251.458801,1.570914
Bus123,251.420863,-0.523455,251.420863,3.665335,251.420863,1.570940
Bus124,251.748437,-0.523743,251.748437,3.665048,251.748437,1.570653
Bus125,251.526393,-0.523542,251.526393,3.665248,251.526393,1.570853
Bus126,251.459019,-0.523481,251.459019,3.665309,251.459019,1.570914
Bus127,251.457778,-0.523482,251.457778,3.665308,251.457778,1.570913
Bus128,251.409696,-0.523447,251.409696,3.665343,251.409696,1.570948
Bus129,251.748437,-0.523743,251.748437,3.665048,251.748437,1.570653
Bus130,251.526301,-0.523542,251.526301,3.665248,251.526301,1.570853
Bus131,251.459019,-0.523481,251.459019,3.665309,251.459019,1.570914
Bus132,251.457500,-0.523482,251.457500,3.665309,251.457500,1.570914
Bus133,251.454956,-0.523483,251.454956,3.665307,251.454956,1.570912
Bus134,251.406373,-0.523445,251.406373,3.665345,251.406373,1.570950
Bus135,251.748437,-0.523743,251.748437,3.665048,251.748437,1.570653
Bus136,251.526216,-0.523542,251.526216,3.665248,251.526216,1.570853
Bus137,251.459019,-0.523481,251.459019,3.665309,251.459019,1.570914
Bus138,251.457476,-0.523482,251.457476,3.665309,251.457476,1.570914
Bus139,251.452857,-0.523484,251.452857,3.665307,251.452857,1.570912
Bus140,251.402623,-0.523443,251.402623,3.665348,251.402623,1.570952
Bus141,251.748437,-0.523743,251.748437,3.665048,251.748437,1.570653
Bus142,251.526074,-0.523542,251.526074,3.665248,251.526074,1.570853
Bus143,251.459019,-0.523481,251.459019,3.665309,251.459019,1.570914
Bus144,251.457452,-0.523482,251.457452,3.665309,251.457452,1.570914
Bus145,251.451452,-0.523484,251.451452,3.665306,251.451452,1.570911
Bus146,251.399096,-0.523440,251.399096,3.665350,251.399096,1.570955
Bus147,251.748437,-0.523743,251.748437,3.665048,251.748437,1.570653
Bus148,251.525403,-0.523543,251.525403,3.665248,251.525403,1.570852
Bus149,251.459019,-0.523481,251.459019,3.665309,251.459019,1.570914
Bus150,251.457433,-0.523482,251.457433,3.665309,251.457433,1.570914
Bus151,251.450922,-0.523484,251.450922,3.665306,251.450922,1.570911
Bus152,251.443494,-0.523476,251.443494,3.665314,251.443494,1.570919
Bus153,251.394980,-0.523437,251.394980,3.665353,251.394980,1.570958
Bus154,251.748437,-0.523743,251.748437,3.665048,251.748437,1.570653
Bus155,251.525256,-0.523543,251.525256,3.665247,251.525256,1.570852
Bus156,251.459019,-0.523481,251.459019,3.665309,251.459019,1.570914
Bus157,251.457405,-0.523481,251.457405,3.665309,251.457405,1.570914
Bus158,251.449519,-0.523485,251.449519,3.665306,251.449519,1.570910
Bus159,251.443010,-0.523476,251.443010,3.665315,251.443010,1.570919
Bus160,251.393796,-0.523437,251.393796,3.665354,251.393796,1.570958
Bus161,251.748437,-0.523743,251.748437,3.665048,251.748437,1.570653
Bus162,251.521740,-0.523539,251.521740,3.665251,251.521740,1.570856
Bus163,251.524953,-0.523543,251.524953,3.665247,251.524953,1.570852
Bus164,251.459019,-0.523481,251.459019,3.665309,251.459019,1.570914
Bus165,251.457371,-0.523481,251.457371,3.665309,251.457371,1.570914
Bus166,251.449031,-0.523485,251.449031,3.665305,251.449031,1.570910
Bus167,251.442568,-0.523475,251.442568,3.665315,251.442568,1.570920
Bus168,251.387068,-0.523432,251.387068,3.665358,251.387068,1.570963
Bus169,251.748437,-0.523743,251.748437,3.665048,251.748437,1.570653
Bus170,251.521076,-0.523539,251.521076,3.665252,251.521076,1.570856
Bus171,251.524550,-0.523543,251.524550,3.665247,251.524550,1.570852
Bus172,251.459019,-0.523481,251.459019,3.665309,251.459019,1.570914
Bus173,251.457345,-0.523481,251.457345,3.665309,251.457345,1.570914
Bus174,251.449031,-0.523485,251.449031,3.665305,251.449031,1.570910
Bus175,251.445084,-0.523481,251.445084,3.665309,251.445084,1.570914
Bus176,251.442384,-0.523475,251.442384,3.665315,251.442384,1.570920
Bus177,251.383268,-0.523430,251.383268,3.665361,251.383268,1.570966
Bus178,251.519705,-0.523537,251.519705,3.665253,251.519705,1.570858
Bus179,251.524511,-0.523543,251.524511,3.665247,251.524511,1.570852
Bus180,251.524184,-0.523543,251.524184,3.665248,251.524184,1.570852
Bus181,251.459019,-0.523481,251.459019,3.665309,251.459019,1.570914
Bus182,251.457315,-0.523481,251.457315,3.665309,251.457315,1.570914
Bus183,251.449031,-0.523485,251.449031,3.665305,251.449031,1.570910
Bus184,251.444658,-0.523480,251.444658,3.665310,251.444658,1.570915
Bus185,251.441988,-0.523475,251.441988,3.665316,251.441988,1.570920
Bus186,251.380447,-0.523428,251.380447,3.665363,251.380447,1.570967
Bus187,251.524354,-0.523543,251.524354,3.665247,251.524354,1.570852
Bus188,251.522669,-0.523541,251.522669,3.665249,251.522669,1.570854
Bus189,251.459019,-0.523481,251.459019,3.665309,251.459019,1.570914
Bus190,251.457287,-0.523481,251.457287,3.665309,251.457287,1.570914
Bus191,251.449031,-0.523485,251.449031,3.665305,251.449031,1.570910
Bus192,251.449031,-0.523485,251.449031,3.665305,251.449031,1.570910
Bus193,251.444246,-0.523480,251.444246,3.665310,251.444246,1.570915
Bus194,251.440979,-0.523474,251.440979,3.665317,251.440979,1.570921
Bus195,251.377911,-0.523426,251.377911,3.665364,251.377911,1.570969
Bus196,251.524076,-0.523543,251.524076,3.665247,251.524076,1.570852
Bus197,251.522520,-0.523541,251.522520,3.665249,251.522520,1.570854
Bus198,251.522583,-0.523541,251.522583,3.665249,251.522583,1.570854
Bus199,251.459019,-0.523481,251.459019,3.665309,251.459019,1.570914
Bus200,251.457256,-0.523481,251.457256,3.665309,251.457256,1.570914
...
SourceBus_1,6667.899008,-0.000118,6667.899008,4.188672,6667.899008,2.094277
LOAD1,251.924290,-0.523901,251.924290,3.664889,251.924290,1.570494
LOAD2,251.816175,-0.523804,251.816175,3.664987,251.816175,1.570591
LOAD3,251.921231,-0.523898,251.921231,3.664892,251.921231,1.570497
LOAD4,251.628889,-0.523634,251.628889,3.665156,251.628889,1.570761
LOAD5,251.626472,-0.523632,251.626472,3.665159,251.626472,1.570763
LOAD6,251.816160,-0.523804,251.816160,3.664987,251.816160,1.570591
LOAD7,251.519705,-0.523537,251.519705,3.665253,251.519705,1.570858
LOAD8,251.522146,-0.523541,251.522146,3.665250,251.522146,1.570854
LOAD9,251.522707,-0.523542,251.522707,3.665248,251.522707,1.570853
LOAD10,251.521668,-0.523541,251.521668,3.665249,251.521668,1.570854
LOAD11,251.521660,-0.523541,251.521660,3.665249,251.521660,1.570854
LOAD12,251.522046,-0.523541,251.522046,3.665250,251.522046,1.570855
LOAD13,251.423873,-0.523457,251.423873,3.665333,251.423873,1.570938
LOAD14,251.456734,-0.523481,251.456734,3.665309,251.456734,1.570914
LOAD15,251.433798,-0.523467,251.433798,3.665324,251.433798,1.570928
LOAD16,251.438714,-0.523475,251.438714,3.665316,251.438714,1.570920
LOAD17,251.436398,-0.523472,251.436398,3.665318,251.436398,1.570923
LOAD18,251.284134,-0.523354,251.284134,3.665436,251.284134,1.571041
LOAD19,251.337290,-0.523398,251.337290,3.665392,251.337290,1.570997
LOAD20,251.303699,-0.523372,251.303699,3.665418,251.303699,1.571023
LOAD21,251.350078,-0.523406,251.350078,3.665384,251.350078,1.570989
LOAD22,251.303610,-0.523372,251.303610,3.665419,251.303610,1.571023
LOAD23,251.254749,-0.523326,251.254749,3.665464,251.254749,1.571069
LOAD24,251.286765,-0.523359,251.286765,3.665431,251.286765,1.571036
LOAD25,251.224889,-0.523301,251.224889,3.665489,251.224889,1.571094
LOAD26,251.231305,-0.523325,251.231305,3.665465,251.231305,1.571070
LOAD27,251.280936,-0.523358,251.280936,3.665432,251.280936,1.571037
LOAD28,251.277885,-0.523355,251.277885,3.665435,251.277885,1.571040
LOAD29,251.209225,-0.523286,251.209225,3.665504,251.209225,1.571109
LOAD30,251.225054,-0.523301,251.225054,3.665489,251.225054,1.571094
LOAD31,251.210396,-0.523288,251.210396,3.665503,251.210396,1.571107
LOAD32,251.218901,-0.523317,251.218901,3.665473,251.218901,1.571078
LOAD33,251.200588,-0.523279,251.200588,3.665511,251.200588,1.571116
LOAD34,251.237492,-0.523312,251.237492,3.665478,251.237492,1.571083
LOAD35,251.203740,-0.523282,251.203740,3.665508,251.203740,1.571113
LOAD36,251.202507,-0.523280,251.202507,3.665510,251.202507,1.571115
LOAD37,251.201149,-0.523279,251.201149,3.665511,251.201149,1.571116
LOAD38,251.202329,-0.523306,251.202329,3.665484,251.202329,1.571089
LOAD39,251.185656,-0.523295,251.185656,3.665496,251.185656,1.571100
LOAD40,251.174912,-0.523288,251.174912,3.665503,251.174912,1.571107
LOAD41,251.113726,-0.523232,251.113726,3.665559,251.113726,1.571163
LOAD42,251.185602,-0.523295,251.185602,3.665496,251.185602,1.571101
LOAD43,251.099893,-0.523219,251.099893,3.665571,251.099893,1.571176
LOAD44,251.227524,-0.523323,251.227524,3.665467,251.227524,1.571072
LOAD45,251.119643,-0.523238,251.119643,3.665553,251.119643,1.571158
LOAD46,251.173285,-0.523279,251.173285,3.665511,251.173285,1.571116
LOAD47,251.101532,-0.523221,251.101532,3.665569,251.101532,1.571174
LOAD48,251.175961,-0.523282,251.175961,3.665509,251.175961,1.571113
LOAD49,251.170342,-0.523276,251.170342,3.665514,251.170342,1.571119
LOAD50,251.107371,-0.523227,251.107371,3.665563,251.107371,1.571168
LOAD51,251.155313,-0.523270,251.155313,3.665520,251.155313,1.571125
LOAD52,251.108550,-0.523228,251.108550,3.665562,251.108550,1.571167
LOAD53,251.107196,-0.523227,251.107196,3.665563,251.107196,1.571168
LOAD54,251.154789,-0.523270,251.154789,3.665520,251.154789,1.571125
LOAD55,251.108442,-0.523228,251.108442,3.665562,251.108442,1.571167
